<?xml version="1.0" encoding="UTF-8"?>

<!-- generated on Tue Jan 29 16:06:37 2013 by SUMO netconvert Version 0.16.0
<?xml version="1.0" encoding="UTF-8"?>

<configuration xmlns:xsi="http://www.w3.org/2001/XMLSchema-instance" xsi:noNamespaceSchemaLocation="http://sumo.sf.net/xsd/netconvertConfiguration.xsd">

    <input>
        <osm-files value="nottinghamFilteredAndAlteredCleanOSM.xml"/>
    </input>

    <output>
        <output-file value="nottingham.net.xml"/>
    </output>

    <projection>
        <proj.utm value="true"/>
    </projection>

    <tls_building>
        <tls.join value="true"/>
    </tls_building>

    <ramp_guessing>
        <ramps.guess value="true"/>
    </ramp_guessing>

    <edge_removal>
        <remove-edges.isolated value="true"/>
    </edge_removal>

    <processing>
        <junctions.join value="true"/>
    </processing>

</configuration>
-->

<net version="0.13" xmlns:xsi="http://www.w3.org/2001/XMLSchema-instance" xsi:noNamespaceSchemaLocation="http://sumo.sf.net/xsd/net_file.xsd">

    <location netOffset="-623445.53,-5867473.53" convBoundary="0.00,0.00,1797.45,2584.23" origBoundary="-1.162358,52.942326,-1.135574,52.965622" projParameter="+proj=utm +zone=30 +ellps=WGS84 +datum=WGS84 +units=m +no_defs"/>

    <edge id=":-14793202#1-AddedOnRampNode_0" function="internal">
        <lane id=":-14793202#1-AddedOnRampNode_0_0" index="0" speed="22.22" length="3.00" shape="588.80,1408.91 585.82,1409.29"/>
    </edge>
    <edge id=":1060431970_0" function="internal">
        <lane id=":1060431970_0_0" index="0" speed="27.78" length="0.10" shape="1524.12,476.49 1524.12,476.49"/>
    </edge>
    <edge id=":1060431970_1" function="internal">
        <lane id=":1060431970_1_0" index="0" speed="27.78" length="0.10" shape="1527.42,476.50 1527.42,476.50"/>
    </edge>
    <edge id=":1060432002_0" function="internal">
        <lane id=":1060432002_0_0" index="0" speed="27.78" length="0.93" shape="982.93,310.06 983.41,310.86"/>
    </edge>
    <edge id=":1060432002_1" function="internal">
        <lane id=":1060432002_1_0" index="0" speed="27.78" length="0.31" shape="980.27,312.01 980.43,312.28"/>
    </edge>
    <edge id=":1060432013_0" function="internal">
        <lane id=":1060432013_0_0" index="0" speed="27.78" length="0.83" shape="997.69,327.56 997.54,326.75"/>
    </edge>
    <edge id=":1060432013_1" function="internal">
        <lane id=":1060432013_1_0" index="0" speed="27.78" length="2.53" shape="1000.98,327.82 1000.52,325.33"/>
    </edge>
    <edge id=":1060432054_0" function="internal">
        <lane id=":1060432054_0_0" index="0" speed="22.22" length="0.10" shape="1510.92,449.98 1510.92,449.98"/>
    </edge>
    <edge id=":1060432074_0" function="internal">
        <lane id=":1060432074_0_0" index="0" speed="27.78" length="0.10" shape="999.80,343.78 999.80,343.79"/>
    </edge>
    <edge id=":1060432074_1" function="internal">
        <lane id=":1060432074_1_0" index="0" speed="27.78" length="0.10" shape="996.85,345.27 996.83,345.24"/>
    </edge>
    <edge id=":1060432084_0" function="internal">
        <lane id=":1060432084_0_0" index="0" speed="27.78" length="0.10" shape="1493.86,474.37 1493.91,474.39"/>
    </edge>
    <edge id=":1060432084_1" function="internal">
        <lane id=":1060432084_1_0" index="0" speed="27.78" length="0.18" shape="1492.60,477.42 1492.77,477.49"/>
    </edge>
    <edge id=":1060432116_0" function="internal">
        <lane id=":1060432116_0_0" index="0" speed="27.78" length="0.10" shape="1517.39,453.85 1517.39,453.84"/>
    </edge>
    <edge id=":1060432116_1" function="internal">
        <lane id=":1060432116_1_0" index="0" speed="27.78" length="0.10" shape="1514.46,452.32 1514.47,452.31"/>
    </edge>
    <edge id=":1060432181_0" function="internal">
        <lane id=":1060432181_0_0" index="0" speed="27.78" length="5.80" shape="1507.31,484.93 1510.91,489.48"/>
    </edge>
    <edge id=":1060432181_1" function="internal">
        <lane id=":1060432181_1_0" index="0" speed="27.78" length="3.31" shape="1505.35,488.03 1507.72,490.35"/>
    </edge>
    <edge id=":1060432181_2" function="internal">
        <lane id=":1060432181_2_0" index="0" speed="27.78" length="12.56" shape="1509.55,481.39 1510.79,484.56 1513.03,486.08 1515.50,487.56 1517.44,490.57"/>
    </edge>
    <edge id=":1060432181_3" function="internal">
        <lane id=":1060432181_3_0" index="0" speed="27.78" length="31.78" shape="1506.72,485.88 1508.79,492.31 1512.70,497.90 1517.33,504.43 1521.58,513.70"/>
    </edge>
    <edge id=":1060432193_0" function="internal">
        <lane id=":1060432193_0_0" index="0" speed="27.78" length="3.59" shape="1526.67,434.20 1526.80,437.78"/>
    </edge>
    <edge id=":1060432193_1" function="internal">
        <lane id=":1060432193_1_0" index="0" speed="27.78" length="2.93" shape="1523.56,433.14 1524.00,436.03"/>
    </edge>
    <edge id=":1060432193_2" function="internal">
        <lane id=":1060432193_2_0" index="0" speed="25.00" length="2.19" shape="1520.45,432.08 1521.46,434.03"/>
    </edge>
    <edge id=":1060432228_0" function="internal">
        <lane id=":1060432228_0_0" index="0" speed="27.78" length="0.93" shape="946.52,278.79 946.50,279.72"/>
    </edge>
    <edge id=":1060432228_1" function="internal">
        <lane id=":1060432228_1_0" index="0" speed="27.78" length="0.27" shape="946.60,275.50 946.53,275.75"/>
    </edge>
    <edge id=":1060432372_0" function="internal">
        <lane id=":1060432372_0_0" index="0" speed="25.00" length="3.40" shape="963.83,283.28 964.45,283.68 965.00,284.24 965.49,284.98 965.91,285.88"/>
    </edge>
    <edge id=":1060432372_1" function="internal">
        <lane id=":1060432372_1_0" index="0" speed="27.78" length="7.40" shape="963.83,283.28 956.94,280.59"/>
    </edge>
    <edge id=":1060432372_2" function="internal">
        <lane id=":1060432372_2_0" index="0" speed="27.78" length="7.41" shape="965.23,280.30 958.34,277.59"/>
    </edge>
    <edge id=":1060432372_3" function="internal">
        <lane id=":1060432372_3_0" index="0" speed="22.22" length="12.16" shape="961.34,274.62 962.60,277.67 963.66,280.24 964.70,282.81 965.91,285.88"/>
    </edge>
    <edge id=":1060432372_4" function="internal">
        <lane id=":1060432372_4_0" index="0" speed="25.00" length="6.51" shape="961.34,274.62 961.88,276.56 961.55,277.70 960.38,278.04 958.34,277.59"/>
    </edge>
    <edge id=":1060432400_0" function="internal">
        <lane id=":1060432400_0_0" index="0" speed="27.78" length="0.23" shape="1496.64,467.75 1496.87,467.79"/>
    </edge>
    <edge id=":1060432400_1" function="internal">
        <lane id=":1060432400_1_0" index="0" speed="27.78" length="0.70" shape="1495.86,470.95 1496.55,471.07"/>
    </edge>
    <edge id=":1061186719_0" function="internal">
        <lane id=":1061186719_0_0" index="0" speed="27.78" length="10.83" shape="540.44,1333.62 538.44,1331.83 538.37,1329.30 538.37,1326.59 536.61,1324.28"/>
    </edge>
    <edge id=":1061186719_1" function="internal">
        <lane id=":1061186719_1_0" index="0" speed="27.78" length="9.42" shape="541.53,1330.50 538.51,1321.58"/>
    </edge>
    <edge id=":1061186719_2" function="internal">
        <lane id=":1061186719_2_0" index="0" speed="27.78" length="2.41" shape="541.53,1330.50 540.63,1329.32 540.51,1328.40"/>
    </edge>
    <edge id=":1061186719_6" function="internal">
        <lane id=":1061186719_6_0" index="0" speed="27.78" length="2.41" shape="540.51,1328.40 541.17,1327.76 542.61,1327.38"/>
    </edge>
    <edge id=":1061186719_3" function="internal">
        <lane id=":1061186719_3_0" index="0" speed="27.78" length="14.65" shape="529.39,1326.59 535.89,1327.56 539.26,1327.50 539.50,1326.41 536.61,1324.28"/>
    </edge>
    <edge id=":1061186719_4" function="internal">
        <lane id=":1061186719_4_0" index="0" speed="27.78" length="16.75" shape="528.80,1329.84 533.37,1329.21 536.36,1326.61 539.30,1324.24 543.69,1324.27"/>
    </edge>
    <edge id=":1061186719_5" function="internal">
        <lane id=":1061186719_5_0" index="0" speed="27.78" length="14.44" shape="528.80,1329.84 532.93,1329.67 535.81,1328.22 538.63,1326.98 542.61,1327.38"/>
    </edge>
    <edge id=":1061186904_0" function="internal">
        <lane id=":1061186904_0_0" index="0" speed="25.00" length="3.38" shape="716.48,1370.33 713.69,1368.42"/>
    </edge>
    <edge id=":1061186904_1" function="internal">
        <lane id=":1061186904_1_0" index="0" speed="27.78" length="2.41" shape="714.52,1376.79 712.94,1374.97"/>
    </edge>
    <edge id=":1061186904_2" function="internal">
        <lane id=":1061186904_2_0" index="0" speed="27.78" length="1.88" shape="713.10,1373.56 713.32,1371.69"/>
    </edge>
    <edge id=":10664641-AddedOffRampNode_0" function="internal">
        <lane id=":10664641-AddedOffRampNode_0_0" index="0" speed="22.22" length="4.46" shape="804.12,1022.42 808.36,1021.04"/>
    </edge>
    <edge id=":10664641-AddedOffRampNode_1" function="internal">
        <lane id=":10664641-AddedOffRampNode_1_0" index="0" speed="22.22" length="3.00" shape="804.12,1022.42 806.73,1023.91"/>
    </edge>
    <edge id=":1078495336_0" function="internal">
        <lane id=":1078495336_0_0" index="0" speed="17.88" length="4.82" shape="336.11,86.89 335.15,85.75 334.99,84.84 335.62,84.17 337.04,83.72"/>
    </edge>
    <edge id=":1110740430_0" function="internal">
        <lane id=":1110740430_0_0" index="0" speed="22.22" length="4.82" shape="1437.25,990.79 1438.11,992.00 1438.21,992.92 1437.53,993.54 1436.08,993.88"/>
    </edge>
    <edge id=":112223636_0" function="internal">
        <lane id=":112223636_0_0" index="0" speed="22.22" length="4.82" shape="256.66,792.33 255.20,792.09 254.48,791.51 254.52,790.59 255.31,789.33"/>
    </edge>
    <edge id=":112223788_0" function="internal">
        <lane id=":112223788_0_0" index="0" speed="22.22" length="4.82" shape="253.83,801.01 253.07,799.73 253.06,798.81 253.79,798.25 255.27,798.05"/>
    </edge>
    <edge id=":1165050524_0" function="internal">
        <lane id=":1165050524_0_0" index="0" speed="18.06" length="5.03" shape="338.08,1275.04 337.32,1273.88 336.38,1273.26 335.25,1273.16 333.94,1273.60"/>
    </edge>
    <edge id=":1165050524_1" function="internal">
        <lane id=":1165050524_1_0" index="0" speed="13.89" length="9.50" shape="338.08,1275.04 334.04,1266.44"/>
    </edge>
    <edge id=":1165050524_2" function="internal">
        <lane id=":1165050524_2_0" index="0" speed="18.06" length="5.10" shape="332.46,1270.65 333.64,1269.85 334.30,1268.87 334.43,1267.74 334.04,1266.44"/>
    </edge>
    <edge id=":1165050524_3" function="internal">
        <lane id=":1165050524_3_0" index="0" speed="22.22" length="4.82" shape="332.46,1270.65 333.93,1270.83 334.67,1271.39 334.67,1272.31 333.94,1273.60"/>
    </edge>
    <edge id=":1179380035_0" function="internal">
        <lane id=":1179380035_0_0" index="0" speed="27.78" length="0.17" shape="725.95,924.81 726.03,924.66"/>
    </edge>
    <edge id=":1179380035_1" function="internal">
        <lane id=":1179380035_1_0" index="0" speed="27.78" length="0.10" shape="728.93,926.23 728.93,926.23"/>
    </edge>
    <edge id=":1179380038_0" function="internal">
        <lane id=":1179380038_0_0" index="0" speed="20.59" length="4.63" shape="767.77,848.89 766.25,844.52"/>
    </edge>
    <edge id=":1179380038_1" function="internal">
        <lane id=":1179380038_1_0" index="0" speed="20.59" length="4.74" shape="770.65,850.49 769.21,845.97"/>
    </edge>
    <edge id=":1179380041_0" function="internal">
        <lane id=":1179380041_0_0" index="0" speed="22.22" length="4.82" shape="952.59,784.58 953.60,785.66 953.81,786.56 953.22,787.27 951.82,787.79"/>
    </edge>
    <edge id=":1179380045_0" function="internal">
        <lane id=":1179380045_0_0" index="0" speed="22.22" length="0.10" shape="1078.93,405.67 1078.93,405.67"/>
    </edge>
    <edge id=":1179380045_1" function="internal">
        <lane id=":1179380045_1_0" index="0" speed="22.22" length="2.41" shape="1078.93,405.67 1077.77,406.60 1076.86,406.75"/>
    </edge>
    <edge id=":1179380045_4" function="internal">
        <lane id=":1179380045_4_0" index="0" speed="22.22" length="2.41" shape="1076.86,406.75 1076.20,406.11 1075.78,404.68"/>
    </edge>
    <edge id=":1179380045_2" function="internal">
        <lane id=":1179380045_2_0" index="0" speed="22.22" length="0.10" shape="1075.78,404.68 1075.78,404.68"/>
    </edge>
    <edge id=":1179380045_3" function="internal">
        <lane id=":1179380045_3_0" index="0" speed="22.22" length="2.41" shape="1075.78,404.68 1076.93,403.75 1077.84,403.60"/>
    </edge>
    <edge id=":1179380045_5" function="internal">
        <lane id=":1179380045_5_0" index="0" speed="22.22" length="2.41" shape="1077.84,403.60 1078.51,404.24 1078.93,405.67"/>
    </edge>
    <edge id=":1179380076_0" function="internal">
        <lane id=":1179380076_0_0" index="0" speed="22.22" length="0.20" shape="1113.05,307.41 1112.97,307.59"/>
    </edge>
    <edge id=":1179380076_1" function="internal">
        <lane id=":1179380076_1_0" index="0" speed="22.22" length="2.41" shape="1113.05,307.41 1111.80,308.22 1110.88,308.28"/>
    </edge>
    <edge id=":1179380076_4" function="internal">
        <lane id=":1179380076_4_0" index="0" speed="22.22" length="2.41" shape="1110.88,308.28 1110.28,307.57 1110.01,306.11"/>
    </edge>
    <edge id=":1179380076_2" function="internal">
        <lane id=":1179380076_2_0" index="0" speed="22.22" length="0.10" shape="1109.99,306.16 1110.01,306.11"/>
    </edge>
    <edge id=":1179380076_3" function="internal">
        <lane id=":1179380076_3_0" index="0" speed="22.22" length="2.41" shape="1109.99,306.16 1111.27,305.40 1112.19,305.38"/>
    </edge>
    <edge id=":1179380076_5" function="internal">
        <lane id=":1179380076_5_0" index="0" speed="22.22" length="2.41" shape="1112.19,305.38 1112.76,306.11 1112.97,307.59"/>
    </edge>
    <edge id=":1179380078_0" function="internal">
        <lane id=":1179380078_0_0" index="0" speed="22.22" length="0.10" shape="1057.18,474.95 1057.18,474.95"/>
    </edge>
    <edge id=":1179380078_1" function="internal">
        <lane id=":1179380078_1_0" index="0" speed="22.22" length="2.41" shape="1057.18,474.95 1056.03,475.88 1055.11,476.03"/>
    </edge>
    <edge id=":1179380078_4" function="internal">
        <lane id=":1179380078_4_0" index="0" speed="22.22" length="2.41" shape="1055.11,476.03 1054.45,475.39 1054.04,473.96"/>
    </edge>
    <edge id=":1179380078_2" function="internal">
        <lane id=":1179380078_2_0" index="0" speed="22.22" length="0.10" shape="1054.04,473.96 1054.04,473.96"/>
    </edge>
    <edge id=":1179380078_3" function="internal">
        <lane id=":1179380078_3_0" index="0" speed="22.22" length="2.41" shape="1054.04,473.96 1055.19,473.02 1056.10,472.88"/>
    </edge>
    <edge id=":1179380078_5" function="internal">
        <lane id=":1179380078_5_0" index="0" speed="22.22" length="2.41" shape="1056.10,472.88 1056.77,473.52 1057.18,474.95"/>
    </edge>
    <edge id=":1179380081_0" function="internal">
        <lane id=":1179380081_0_0" index="0" speed="22.22" length="1.98" shape="930.38,783.74 928.52,783.07"/>
    </edge>
    <edge id=":1179380081_1" function="internal">
        <lane id=":1179380081_1_0" index="0" speed="22.22" length="2.41" shape="930.38,783.74 929.27,782.75 928.98,781.87"/>
    </edge>
    <edge id=":1179380081_4" function="internal">
        <lane id=":1179380081_4_0" index="0" speed="22.22" length="2.41" shape="928.98,781.87 929.51,781.11 930.85,780.48"/>
    </edge>
    <edge id=":1179380081_2" function="internal">
        <lane id=":1179380081_2_0" index="0" speed="22.22" length="0.65" shape="930.25,780.26 930.85,780.48"/>
    </edge>
    <edge id=":1179380081_3" function="internal">
        <lane id=":1179380081_3_0" index="0" speed="22.22" length="2.41" shape="930.25,780.26 930.87,781.61 930.79,782.53"/>
    </edge>
    <edge id=":1179380081_5" function="internal">
        <lane id=":1179380081_5_0" index="0" speed="22.22" length="2.41" shape="930.79,782.53 930.00,783.01 928.52,783.07"/>
    </edge>
    <edge id=":1179387747_0" function="internal">
        <lane id=":1179387747_0_0" index="0" speed="22.22" length="0.17" shape="1510.68,119.27 1510.67,119.44"/>
    </edge>
    <edge id=":1179387747_1" function="internal">
        <lane id=":1179387747_1_0" index="0" speed="22.22" length="2.41" shape="1510.68,119.27 1509.79,120.47 1508.95,120.84"/>
    </edge>
    <edge id=":1179387747_4" function="internal">
        <lane id=":1179387747_4_0" index="0" speed="22.22" length="2.41" shape="1508.95,120.84 1508.14,120.38 1507.38,119.10"/>
    </edge>
    <edge id=":1179387747_2" function="internal">
        <lane id=":1179387747_2_0" index="0" speed="22.22" length="0.10" shape="1507.38,119.15 1507.38,119.10"/>
    </edge>
    <edge id=":1179387747_3" function="internal">
        <lane id=":1179387747_3_0" index="0" speed="22.22" length="2.41" shape="1507.38,119.15 1508.31,117.99 1509.17,117.65"/>
    </edge>
    <edge id=":1179387747_5" function="internal">
        <lane id=":1179387747_5_0" index="0" speed="22.22" length="2.41" shape="1509.17,117.65 1509.96,118.13 1510.67,119.44"/>
    </edge>
    <edge id=":1190930093_0" function="internal">
        <lane id=":1190930093_0_0" index="0" speed="22.22" length="0.87" shape="735.93,1505.71 736.69,1506.14"/>
    </edge>
    <edge id=":1190930094_0" function="internal">
        <lane id=":1190930094_0_0" index="0" speed="27.78" length="3.32" shape="762.76,1475.25 759.51,1474.59"/>
    </edge>
    <edge id=":1190930094_1" function="internal">
        <lane id=":1190930094_1_0" index="0" speed="27.78" length="3.35" shape="759.61,1474.20 756.27,1473.93"/>
    </edge>
    <edge id=":1190930094_2" function="internal">
        <lane id=":1190930094_2_0" index="0" speed="27.78" length="0.42" shape="759.61,1474.20 759.30,1474.49"/>
    </edge>
    <edge id=":1190930094_6" function="internal">
        <lane id=":1190930094_6_0" index="0" speed="27.78" length="4.40" shape="759.30,1474.49 758.53,1475.23 757.63,1475.45 756.92,1474.86 756.39,1473.47"/>
    </edge>
    <edge id=":1190930094_3" function="internal">
        <lane id=":1190930094_3_0" index="0" speed="27.78" length="3.38" shape="756.35,1473.94 753.12,1472.96"/>
    </edge>
    <edge id=":1190930094_4" function="internal">
        <lane id=":1190930094_4_0" index="0" speed="27.78" length="3.46" shape="759.65,1474.62 756.39,1473.47"/>
    </edge>
    <edge id=":1190930094_5" function="internal">
        <lane id=":1190930094_5_0" index="0" speed="27.78" length="2.52" shape="759.65,1474.62 758.54,1475.71 757.61,1475.96"/>
    </edge>
    <edge id=":1190930094_7" function="internal">
        <lane id=":1190930094_7_0" index="0" speed="27.78" length="2.52" shape="757.61,1475.96 756.86,1475.36 756.27,1473.93"/>
    </edge>
    <edge id=":1190930096_0" function="internal">
        <lane id=":1190930096_0_0" index="0" speed="25.00" length="71.89" shape="746.89,1548.17 747.17,1558.70 747.64,1578.50 747.85,1601.10 747.34,1620.04"/>
    </edge>
    <edge id=":1190930096_1" function="internal">
        <lane id=":1190930096_1_0" index="0" speed="25.00" length="13.89" shape="746.89,1548.17 747.76,1547.42 749.58,1541.39 751.27,1535.66 751.72,1535.81"/>
    </edge>
    <edge id=":1190930096_2" function="internal">
        <lane id=":1190930096_2_0" index="0" speed="27.78" length="89.02" shape="758.70,1532.54 761.01,1550.89 756.99,1575.46 750.98,1600.45 747.34,1620.04"/>
    </edge>
    <edge id=":1190930096_3" function="internal">
        <lane id=":1190930096_3_0" index="0" speed="27.78" length="4.41" shape="755.77,1534.06 751.72,1535.81"/>
    </edge>
    <edge id=":1190930096_4" function="internal">
        <lane id=":1190930096_4_0" index="0" speed="27.78" length="4.41" shape="752.84,1535.59 748.44,1535.46"/>
    </edge>
    <edge id=":1190930096_5" function="internal">
        <lane id=":1190930096_5_0" index="0" speed="27.78" length="83.86" shape="749.92,1537.11 752.06,1554.61 747.66,1577.31 741.29,1600.42 737.48,1619.17"/>
    </edge>
    <edge id=":1190930097_0" function="internal">
        <lane id=":1190930097_0_0" index="0" speed="27.78" length="3.66" shape="779.68,1523.66 776.02,1523.74"/>
    </edge>
    <edge id=":1190930097_1" function="internal">
        <lane id=":1190930097_1_0" index="0" speed="27.78" length="2.46" shape="780.38,1520.44 778.02,1521.12"/>
    </edge>
    <edge id=":1190930097_2" function="internal">
        <lane id=":1190930097_2_0" index="0" speed="27.78" length="0.93" shape="781.09,1517.21 780.16,1517.09"/>
    </edge>
    <edge id=":1190930097_3" function="internal">
        <lane id=":1190930097_3_0" index="0" speed="27.78" length="0.35" shape="781.80,1513.99 781.45,1514.04"/>
    </edge>
    <edge id=":1190930103_0" function="internal">
        <lane id=":1190930103_0_0" index="0" speed="27.78" length="1.19" shape="769.25,1511.76 768.35,1510.98"/>
    </edge>
    <edge id=":1190930103_1" function="internal">
        <lane id=":1190930103_1_0" index="0" speed="27.78" length="0.39" shape="771.08,1509.01 770.78,1508.76"/>
    </edge>
    <edge id=":1190930106_0" function="internal">
        <lane id=":1190930106_0_0" index="0" speed="27.78" length="8.50" shape="750.59,1514.58 745.44,1521.35"/>
    </edge>
    <edge id=":1190930106_1" function="internal">
        <lane id=":1190930106_1_0" index="0" speed="27.78" length="9.87" shape="747.31,1514.24 742.52,1522.87"/>
    </edge>
    <edge id=":1190930106_2" function="internal">
        <lane id=":1190930106_2_0" index="0" speed="27.78" length="4.66" shape="754.49,1522.51 755.81,1526.98"/>
    </edge>
    <edge id=":1190930106_3" function="internal">
        <lane id=":1190930106_3_0" index="0" speed="27.78" length="9.86" shape="751.15,1519.30 750.41,1520.45 750.45,1522.37 751.27,1525.04 752.87,1528.47"/>
    </edge>
    <edge id=":1238428154_0" function="internal">
        <lane id=":1238428154_0_0" index="0" speed="13.89" length="4.82" shape="902.22,2212.37 903.70,2212.40 904.49,2212.88 904.58,2213.80 903.98,2215.16"/>
    </edge>
    <edge id=":1238428182_0" function="internal">
        <lane id=":1238428182_0_0" index="0" speed="13.89" length="9.48" shape="850.22,2252.58 845.20,2244.55"/>
    </edge>
    <edge id=":1238428182_1" function="internal">
        <lane id=":1238428182_1_0" index="0" speed="13.89" length="7.78" shape="850.22,2252.58 848.88,2249.92 848.76,2247.52 849.88,2245.40"/>
    </edge>
    <edge id=":1238428182_9" function="internal">
        <lane id=":1238428182_9_0" index="0" speed="13.89" length="2.99" shape="849.88,2245.40 852.22,2243.55"/>
    </edge>
    <edge id=":1238428182_2" function="internal">
        <lane id=":1238428182_2_0" index="0" speed="13.89" length="2.41" shape="850.22,2252.58 850.19,2251.10 850.63,2250.29"/>
    </edge>
    <edge id=":1238428182_10" function="internal">
        <lane id=":1238428182_10_0" index="0" speed="13.89" length="2.41" shape="850.63,2250.29 851.54,2250.15 852.93,2250.69"/>
    </edge>
    <edge id=":1238428182_3" function="internal">
        <lane id=":1238428182_3_0" index="0" speed="13.89" length="5.11" shape="853.88,2246.41 852.76,2247.29 852.23,2248.29 852.29,2249.43 852.93,2250.69"/>
    </edge>
    <edge id=":1238428182_4" function="internal">
        <lane id=":1238428182_4_0" index="0" speed="13.89" length="10.78" shape="853.88,2246.41 850.66,2247.84 848.14,2248.01 846.32,2246.91 845.20,2244.55"/>
    </edge>
    <edge id=":1238428182_5" function="internal">
        <lane id=":1238428182_5_0" index="0" speed="13.89" length="4.82" shape="853.88,2246.41 852.39,2246.32 851.62,2245.81 851.57,2244.89 852.22,2243.55"/>
    </edge>
    <edge id=":1238428182_6" function="internal">
        <lane id=":1238428182_6_0" index="0" speed="13.89" length="5.17" shape="848.10,2242.57 848.64,2243.73 849.51,2244.28 850.70,2244.22 852.22,2243.55"/>
    </edge>
    <edge id=":1238428182_7" function="internal">
        <lane id=":1238428182_7_0" index="0" speed="13.89" length="9.45" shape="848.10,2242.57 852.93,2250.69"/>
    </edge>
    <edge id=":1238428182_8" function="internal">
        <lane id=":1238428182_8_0" index="0" speed="13.89" length="2.56" shape="848.10,2242.57 848.11,2244.15 847.64,2245.01"/>
    </edge>
    <edge id=":1238428182_11" function="internal">
        <lane id=":1238428182_11_0" index="0" speed="13.89" length="2.56" shape="847.64,2245.01 846.67,2245.14 845.20,2244.55"/>
    </edge>
    <edge id=":1238428218_0" function="internal">
        <lane id=":1238428218_0_0" index="0" speed="13.89" length="4.82" shape="930.81,2277.20 932.13,2277.90 932.62,2278.67 932.30,2279.54 931.15,2280.49"/>
    </edge>
    <edge id=":1241330290_0" function="internal">
        <lane id=":1241330290_0_0" index="0" speed="27.78" length="0.10" shape="492.64,1263.41 492.65,1263.41"/>
    </edge>
    <edge id=":1241330290_1" function="internal">
        <lane id=":1241330290_1_0" index="0" speed="27.78" length="0.10" shape="490.33,1261.06 490.33,1261.06"/>
    </edge>
    <edge id=":1241330302_0" function="internal">
        <lane id=":1241330302_0_0" index="0" speed="27.78" length="0.10" shape="295.46,1445.56 295.45,1445.56"/>
    </edge>
    <edge id=":1241330302_1" function="internal">
        <lane id=":1241330302_1_0" index="0" speed="27.78" length="0.10" shape="296.53,1448.69 296.53,1448.69"/>
    </edge>
    <edge id=":1241330304_0" function="internal">
        <lane id=":1241330304_0_0" index="0" speed="13.41" length="4.96" shape="454.62,1319.50 455.58,1324.36"/>
    </edge>
    <edge id=":1241330304_1" function="internal">
        <lane id=":1241330304_1_0" index="0" speed="13.41" length="3.37" shape="454.62,1319.50 452.92,1322.41"/>
    </edge>
    <edge id=":1241330304_2" function="internal">
        <lane id=":1241330304_2_0" index="0" speed="13.41" length="2.23" shape="451.46,1318.57 450.26,1320.45"/>
    </edge>
    <edge id=":1241330317_0" function="internal">
        <lane id=":1241330317_0_0" index="0" speed="27.78" length="0.10" shape="536.13,1217.87 536.13,1217.87"/>
    </edge>
    <edge id=":1241330317_1" function="internal">
        <lane id=":1241330317_1_0" index="0" speed="27.78" length="0.10" shape="538.74,1219.89 538.74,1219.89"/>
    </edge>
    <edge id=":1241330327_0" function="internal">
        <lane id=":1241330327_0_0" index="0" speed="13.41" length="0.10" shape="276.02,1402.37 276.02,1402.37"/>
    </edge>
    <edge id=":1241330327_1" function="internal">
        <lane id=":1241330327_1_0" index="0" speed="13.41" length="0.10" shape="274.66,1399.36 274.66,1399.36"/>
    </edge>
    <edge id=":1241330382_0" function="internal">
        <lane id=":1241330382_0_0" index="0" speed="13.41" length="0.31" shape="363.56,1363.27 363.27,1363.37"/>
    </edge>
    <edge id=":1241330382_1" function="internal">
        <lane id=":1241330382_1_0" index="0" speed="13.41" length="0.95" shape="362.80,1360.06 361.91,1360.37"/>
    </edge>
    <edge id=":1241330386_0" function="internal">
        <lane id=":1241330386_0_0" index="0" speed="27.78" length="3.40" shape="541.91,1194.58 540.00,1197.39"/>
    </edge>
    <edge id=":1241330386_1" function="internal">
        <lane id=":1241330386_1_0" index="0" speed="27.78" length="3.13" shape="539.11,1192.84 537.35,1195.42"/>
    </edge>
    <edge id=":1264748014_0" function="internal">
        <lane id=":1264748014_0_0" index="0" speed="22.22" length="0.10" shape="1404.96,1881.29 1404.97,1881.32"/>
    </edge>
    <edge id=":1264748014_1" function="internal">
        <lane id=":1264748014_1_0" index="0" speed="22.22" length="2.41" shape="1404.96,1881.29 1405.59,1879.94 1406.35,1879.41"/>
    </edge>
    <edge id=":1264748014_4" function="internal">
        <lane id=":1264748014_4_0" index="0" speed="22.22" length="2.41" shape="1406.35,1879.41 1407.22,1879.69 1408.23,1880.79"/>
    </edge>
    <edge id=":1264748014_2" function="internal">
        <lane id=":1264748014_2_0" index="0" speed="22.22" length="0.10" shape="1408.22,1880.78 1408.23,1880.79"/>
    </edge>
    <edge id=":1264748014_3" function="internal">
        <lane id=":1264748014_3_0" index="0" speed="22.22" length="2.41" shape="1408.22,1880.78 1407.61,1882.14 1406.87,1882.68"/>
    </edge>
    <edge id=":1264748014_5" function="internal">
        <lane id=":1264748014_5_0" index="0" speed="22.22" length="2.41" shape="1406.87,1882.68 1405.98,1882.41 1404.97,1881.32"/>
    </edge>
    <edge id=":1264748015_0" function="internal">
        <lane id=":1264748015_0_0" index="0" speed="13.89" length="0.38" shape="1273.28,1843.46 1272.97,1843.69"/>
    </edge>
    <edge id=":1264748015_1" function="internal">
        <lane id=":1264748015_1_0" index="0" speed="13.89" length="2.41" shape="1273.28,1843.46 1271.80,1843.62 1270.95,1843.25"/>
    </edge>
    <edge id=":1264748015_4" function="internal">
        <lane id=":1264748015_4_0" index="0" speed="13.89" length="2.41" shape="1270.95,1843.25 1270.74,1842.36 1271.15,1840.93"/>
    </edge>
    <edge id=":1264748015_2" function="internal">
        <lane id=":1264748015_2_0" index="0" speed="13.89" length="0.12" shape="1271.05,1841.01 1271.15,1840.93"/>
    </edge>
    <edge id=":1264748015_3" function="internal">
        <lane id=":1264748015_3_0" index="0" speed="13.89" length="2.41" shape="1271.05,1841.01 1272.54,1840.96 1273.36,1841.39"/>
    </edge>
    <edge id=":1264748015_5" function="internal">
        <lane id=":1264748015_5_0" index="0" speed="13.89" length="2.41" shape="1273.36,1841.39 1273.50,1842.30 1272.97,1843.69"/>
    </edge>
    <edge id=":1264748052_0" function="internal">
        <lane id=":1264748052_0_0" index="0" speed="22.22" length="0.29" shape="1398.27,1855.12 1398.15,1854.85"/>
    </edge>
    <edge id=":1264748052_1" function="internal">
        <lane id=":1264748052_1_0" index="0" speed="22.22" length="2.41" shape="1398.27,1855.12 1398.66,1853.68 1399.31,1853.03"/>
    </edge>